ipss.QA/testData/psse/SCGrid_TestCase1_2009.raw
0,   100.00          / PSS/E-30.0    THU, NOV 19 2009  21:12
PSS/E LOADFLOW RAW FILE
CONVERTED FROM BPA FORMAT
 10001,'GZ-HLZ      ', 220.0000,1,     0.000,     0.000,   1,   1,1.04428,  -3.4492,   1
 10002,'ZQ-HLZ      ', 525.0000,1,     0.000,     0.000,   1,   2,1.01188,   2.9874,   2
 10003,'DCZQ=       ', 500.0000,1,     0.000,     0.000,   1,   2,1.06168,   2.7010,   1
 10004,'BA-HLZ      ', 525.0000,1,     0.000,     0.000,   1,   1,0.99343,  -4.0016,   2
 10005,'HUIZ-HLZ    ', 525.0000,1,     0.000,     0.000,   1,   1,1.01485,  -0.2126,   1
 10006,'DCHZ=       ', 500.0000,1,     0.000,     0.000,   1,   2,1.06513,  -0.4952,   1
 10007,'GD01-HLZ    ', 525.0000,1,     0.000,     0.000,   1,   2,0.99989,  -3.0654,   1
 10008,'LUODON50    ', 525.0000,1,     0.000,  -472.000,   1,   2,0.99309,   1.0919,   2
 10009,'MAOMIN50    ', 525.0000,1,     0.000,     0.000,   1,   2,0.99718,  12.1313,   2
 10010,'XIANLS50    ', 525.0000,1,     0.000,  -372.000,   1,   2,0.99997,   7.9211,   1
 10011,'GANGCH50    ', 525.0000,1,     0.000,     0.000,   1,   1,1.00601,  11.6642,   1
 10012,'NPS2        ',  26.0000,2,     0.000,     0.000,   1,   3,1.01500,   8.5547,   1
 10013,'NPS3        ',  26.0000,2,     0.000,     0.000,   1,   4,1.01500,   4.4286,   1
 10014,'NPS4        ',  26.0000,2,     0.000,     0.000,   1,   4,1.01500,   4.4286,   1
 10015,'SJA4        ',  20.0000,2,     0.000,     0.000,   1,   4,1.01500,   3.8527,   1
 10016,'SJA5        ',  20.0000,2,     0.000,     0.000,   1,   4,1.01500,   3.8527,   1
 10017,'SJB1        ',  19.0000,3,     0.000,     0.000,   1,   4,1.01500,   0.0000,   1
 10018,'SJB2        ',  19.0000,2,     0.000,     0.000,   1,   4,1.01500,   3.5570,   1
 10019,'SJC1        ',  19.0000,2,     0.000,     0.000,   1,   4,1.00500,   4.9270,   1
 10020,'SJC2        ',  19.0000,2,     0.000,     0.000,   1,   4,1.00500,   4.9023,   1
 10021,'SJC3        ',  19.0000,2,     0.000,     0.000,   1,   4,1.00500,   4.9270,   1
 10022,'PSS1        ',  18.0000,2,     0.000,     0.000,   1,   4,1.02500,   8.0793,   1
 10023,'PSS2        ',  18.0000,2,     0.000,     0.000,   1,   4,1.02500,   8.0793,   1
 10024,'PSS3        ',  18.0000,2,     0.000,     0.000,   1,   4,1.02500,   8.0793,   1
 10025,'PSS4        ',  18.0000,2,     0.000,     0.000,   1,   4,1.03800,   7.9825,   1
 10026,'PSS6        ',  18.0000,2,     0.000,     0.000,   1,   4,1.02500,   7.9931,   1
 10027,'PSS7        ',  18.0000,2,     0.000,     0.000,   1,   4,1.02500,   7.9931,   1
 10028,'PSS8        ',  18.0000,2,     0.000,     0.000,   1,   4,1.02500,   7.9931,   1
 10029,'HZX2        ',  18.0000,2,     0.000,     0.000,   1,   4,1.03500,   2.8428,   1
 10030,'ZUH3        ',  20.0000,2,     0.000,     0.000,   1,   4,1.00014,   6.5924,   1
 10031,'ZUH4        ',  20.0000,2,     0.000,     0.000,   1,   4,1.00014,   6.5924,   1
 10032,'TOG3        ',  20.0000,2,     0.000,     0.000,   1,   4,1.00000,   8.7903,   1
 10033,'TOG4        ',  20.0000,2,     0.000,     0.000,   1,   4,1.00000,   8.7903,   1
 10034,'TOG5        ',  20.0000,2,     0.000,     0.000,   1,   4,1.00000,   8.7903,   1
 10035,'LYJ1        ',  20.0000,2,     0.000,     0.000,   1,   4,1.00639,  19.5539,   1
 10036,'LYJ2        ',  20.0000,2,     0.000,     0.000,   1,   4,1.00639,  19.5539,   1
 10037,'QIAOK1      ',  22.0000,2,     0.000,     0.000,   1,   4,1.02000,  20.6368,   1
 10038,'QIAOK2      ',  22.0000,2,     0.000,     0.000,   1,   4,1.02093,  20.6308,   1
 10039,'YAX1        ',  20.0000,2,     0.000,     0.000,   1,   1,1.00800,  10.9711,   1
 10040,'HOHW1       ',  22.0000,2,     0.000,     0.000,   1,   4,1.00342,  11.1668,   1
 10041,'HOHW2       ',  22.0000,2,     0.000,     0.000,   1,   4,1.00342,  11.1668,   1
 10042,'HAIM1       ',  27.0000,2,     0.000,     0.000,   1,   1,1.02000,  16.0610,   1
 10043,'HSYB1       ',  20.0000,2,     0.000,     0.000,   1,   4,1.00368,  17.0469,   1
 10044,'HSYB2       ',  20.0000,2,     0.000,     0.000,   1,   4,1.00368,  17.0469,   1
 10045,'DAYAWAN=    ', 500.0000,1,     0.000,     0.000,   1,   3,1.05913,   1.2941,   1
 10046,'LINGAO=     ', 500.0000,1,     0.000,     0.000,   1,   1,1.05587,  -2.5081,   1
 10047,'SHAJIAC=    ', 500.0000,1,     0.000,     0.000,   1,   1,1.05181,  -2.3151,   1
 10048,'SHAJIAB=    ', 500.0000,1,     0.000,     0.000,   1,   1,1.05205,  -2.3476,   1
 10049,'XUNENG1=    ', 500.0000,1,     0.000,     0.000,   1,   1,1.06236,   1.4088,   1
 10050,'XUNENG2=    ', 500.0000,1,     0.000,     0.000,   1,   1,1.06229,   1.3222,   1
 10051,'HZXUNEN=    ', 500.0000,1,     0.000,     0.000,   1,   1,1.06214,  -1.4327,   1
 10052,'ZHUHAIB=    ', 500.0000,1,     0.000,     0.000,   1,   1,1.04610,   0.1734,   1
 10053,'TONGGU=     ', 500.0000,1,     0.000,     0.000,   1,   1,1.04663,   2.3032,   1
 10054,'LIYUJIA=    ', 500.0000,1,     0.000,     0.000,   1,   1,1.07064,  14.1524,   1
 10055,'QIAOKOU=    ', 500.0000,1,     0.000,  -123.000,   1,   1,1.06995,  14.1122,   1
 10056,'AOLIYOU=    ', 500.0000,1,     0.000,     0.000,   1,   1,1.05663,  11.6607,   1
 10057,'YANGXI=     ', 500.0000,1,     0.000,     0.000,   1,   1,1.05961,   5.5479,   1
 10058,'HONGHAW=    ', 500.0000,1,     0.000,     0.000,   1,   1,1.06261,   5.5120,   1
 10059,'HAIMEN=     ', 500.0000,1,     0.000,     0.000,   1,   1,1.06662,  10.2687,   1
 10060,'HESHUYB=    ', 500.0000,1,     0.000,     0.000,   1,   1,1.06049,  11.3670,   1
 10061,'ZCT=        ', 500.0000,1,     0.000,     0.000,   1,   1,1.04810,  -3.7205,   1
 10062,'ZENGCHE=    ', 500.0000,1,     0.000,     0.000,   1,   1,1.04805,  -2.6421,   1
 10063,'GUANGNA=    ', 500.0000,1,     0.000,     0.000,   1,   1,1.04938,  -3.8078,   1
 10064,'HUADU=      ', 500.0000,1,     0.000,  -246.000,   1,   1,1.05486,   1.1477,   1
 10065,'DCSUID=     ', 500.0000,1,     0.000,     0.000,   1,   2,1.04988,  -3.0654,   1
 10066,'XIANLS=     ', 500.0000,1,     0.000,  -198.000,   1,   1,1.05035,   7.7053,   1
 10067,'LUODONG=    ', 500.0000,1,     0.000,     0.000,   1,   1,1.04405,   0.7122,   1
 10068,'XIJIANG=    ', 500.0000,1,     0.000,     0.000,   1,   1,1.05078,   0.3515,   1
 10069,'SHUNDE=     ', 500.0000,1,     0.000,     0.000,   1,   1,1.04512,  -2.3081,   1
 10070,'YANDU=      ', 500.0000,1,     0.000,     0.000,   1,   1,1.06129,   2.5576,   1
 10071,'DGT=        ', 500.0000,1,     0.000,     0.000,   1,   1,1.05641,  -2.0717,   1
 10072,'DONGGUA=    ', 500.0000,1,     0.000,     0.000,   1,   1,1.05805,  -3.0045,   1
 10073,'HENGLI=     ', 500.0000,1,     0.000,     0.000,   1,   1,1.05444,  -2.6746,   1
 10074,'GUANCHE=    ', 500.0000,1,     0.000,     0.000,   1,   1,1.04165,  -5.8203,   1
 10075,'HUIZHOU=    ', 500.0000,1,     0.000,     0.000,   1,   1,1.06043,  -0.5168,   1
 10076,'BOLUO=      ', 500.0000,1,     0.000,     0.000,   1,   1,1.06341,  -0.7322,   1
 10077,'SHANTOU=    ', 500.0000,1,     0.000,     0.000,   1,   1,1.06403,   8.9984,   1
 10078,'MAOHU=      ', 500.0000,1,     0.000,     0.000,   1,   1,1.06328,   4.7490,   1
 10079,'JIAYING=    ', 500.0000,1,     0.000,  -198.000,   1,   1,1.06021,  11.0371,   1
 10080,'RONGJIA=    ', 500.0000,1,     0.000,  -123.000,   1,   1,1.06307,   8.4757,   1
 10081,'QUJIANG=    ', 500.0000,1,     0.000,  -297.000,   1,   1,1.05087,   5.4306,   1
 10082,'JIANGME=    ', 500.0000,1,     0.000,     0.000,   1,   1,1.04715,  -0.9366,   1
 10083,'DIELING=    ', 500.0000,1,     0.000,  -198.000,   1,   1,1.05553,   4.5137,   1
 10084,'MAOMING=    ', 500.0000,1,     0.000,  -222.000,   1,   1,1.04763,  11.9102,   1
 10085,'GANGCHE=    ', 500.0000,1,     0.000,     0.000,   1,   1,1.05611,  11.6642,   1
 10086,'XIANGSH=    ', 500.0000,1,     0.000,     0.000,   1,   1,1.04199,  -2.1126,   1
 10087,'BEIJIAO=    ', 500.0000,1,     0.000,     0.000,   1,   1,1.05068,  -0.3202,   1
 10088,'BEIJIAO     ', 220.0000,1,     0.000,     0.000,   1,   1,1.04407,  -3.6232,   1
 10089,'BJ2         ', 220.0000,1,     0.000,     0.000,   1,   1,0.99972,  -3.5859,   1
 10090,'BJ3         ', 220.0000,1,     0.000,     0.000,   1,   1,0.99968,  -3.5908,   1
 10091,'BJ32        ',  34.5000,1,     0.000,    80.000,   1,   1,1.04778,  -3.6282,   1
 10092,'BJ33        ',  34.5000,1,     0.000,    80.000,   1,   1,1.04762,  -3.6331,   1
 10093,'ZAY1        ',  20.0000,2,     0.000,     0.000,   1,   5,1.01000,   2.1739,   1
 10094,'ZAY2        ',  20.0000,2,     0.000,     0.000,   1,   5,1.01000,   2.1739,   1
 10095,'ZHAOYANG    ', 220.0000,1,     0.000,     0.000,   1,   6,1.06661,  -2.6728,   1
 10096,'QIANFAN     ', 220.0000,1,     0.000,     0.000,   1,   6,1.06584,  -2.7645,   1
 10097,'QIUCHANG    ', 220.0000,1,     0.000,     0.000,   1,   6,1.05761,  -3.5862,   1
 10098,'HUIZHOU     ', 220.0000,1,     0.000,     0.000,   1,   1,1.05620,  -3.4370,   1
 10099,'HZ1         ', 220.0000,1,     0.000,     0.000,   1,   1,1.01101,  -3.4068,   1
 10100,'HZ2         ', 220.0000,1,     0.000,     0.000,   1,   1,1.01101,  -3.4068,   1
 10101,'HZ31        ',  34.5000,1,     0.000,    40.000,   1,   1,1.03463,  -3.4242,   1
 10102,'HZ32        ',  34.5000,1,     0.000,    40.000,   1,   1,1.03463,  -3.4242,   1
 10103,'HZ3         ', 220.0000,1,     0.000,     0.000,   1,   1,1.01101,  -3.4068,   1
 10104,'HZ33        ',  34.5000,1,     0.000,    40.000,   1,   1,1.03463,  -3.4242,   1
 10105,'HUP5        ',  18.0000,2,     0.000,     0.000,   1,   5,1.01500,  -4.7302,   1
 10106,'HUP6        ',  18.0000,2,     0.000,     0.000,   1,   5,1.01500,  -4.7302,   1
 10107,'HUANGPUB    ', 220.0000,1,     0.000,     0.000,   1,   6,1.05094, -10.0199,   1
 10108,'BISHAN      ', 220.0000,1,     0.000,     0.000,   1,   6,1.03819, -11.1012,   1
 10109,'TANGXIA     ', 220.0000,1,     0.000,     0.000,   1,   6,1.03706, -10.7731,   1
 10110,'ZENGCHEA    ', 220.0000,1,     0.000,     0.000,   1,   1,1.03989,  -8.5319,   1
 10111,'ZENGCHEN    ', 220.0000,1,     0.000,     0.000,   1,   1,1.01986,  -9.3983,   1
 10112,'ZC1         ', 220.0000,1,     0.000,     0.000,   1,   1,1.00897,  -8.4673,   1
 10113,'ZC2         ', 220.0000,1,     0.000,     0.000,   1,   1,0.98984,  -9.3296,   1
 10114,'ZC3         ', 220.0000,1,     0.000,     0.000,   1,   1,0.98984,  -9.3296,   1
 10115,'ZC31        ',  34.5000,1,     0.000,    80.000,   1,   1,1.05687,  -8.5095,   1
 10116,'ZC32        ',  34.5000,1,     0.000,    80.000,   1,   1,1.03683,  -9.3718,   1
 10117,'ZC33        ',  34.5000,1,     0.000,    80.000,   1,   1,1.03683,  -9.3718,   1
 10118,'ZUJ1        ',  20.0000,2,     0.000,     0.000,   1,   5,1.01000,   0.9725,   1
 10119,'ZUJ2        ',  20.0000,2,     0.000,     0.000,   1,   5,1.01000,   0.9725,   1
 10120,'ZUJ3        ',  20.0000,2,     0.000,     0.000,   1,   5,1.01000,   0.6345,   1
 10121,'ZUJ4        ',  20.0000,2,     0.000,     0.000,   1,   5,1.01000,   0.6345,   1
 10122,'ZHUJIANG    ', 220.0000,1,     0.000,     0.000,   1,   6,1.05797,  -5.5713,   1
 10123,'GUANGNAA    ', 220.0000,1,     0.000,     0.000,   1,   1,1.03717,  -7.3111,   1
 10124,'GN1         ', 220.0000,1,     0.000,     0.000,   1,   1,1.00643,  -7.2667,   1
 10125,'GN31        ',  34.5000,1,     0.000,    60.000,   1,   1,1.03195,  -7.2864,   1
 10126,'GUANGNAB    ', 220.0000,1,     0.000,     0.000,   1,   1,1.03910,  -9.5809,   1
 10127,'GN3         ', 220.0000,1,     0.000,     0.000,   1,   1,1.00845,  -9.5058,   1
 10128,'GN33        ',  34.5000,1,     0.000,    60.000,   1,   1,1.03352,  -9.5252,   1
 10129,'GN4         ', 220.0000,1,     0.000,     0.000,   1,   1,1.00845,  -9.5058,   1
 10130,'GN34        ',  34.5000,1,     0.000,    60.000,   1,   1,1.03352,  -9.5252,   1
 10131,'ZHN1        ',  19.0000,2,     0.000,     0.000,   1,   5,1.00000,   0.9106,   1
 10132,'ZHN2        ',  19.0000,2,     0.000,     0.000,   1,   5,1.00000,   0.9106,   1
 10133,'ZHANNECH    ', 220.0000,1,     0.000,     0.000,   1,   6,1.05535,  -5.1571,   1
 10134,'HUQIAO      ', 220.0000,1,     0.000,     0.000,   1,   6,1.05302,  -5.4985,   1
 10135,'PANYU       ', 220.0000,1,     0.000,     0.000,   1,   6,1.03807,  -7.3080,   1
 10136,'HEY8        ',  20.0000,2,     0.000,     0.000,   1,   5,0.99604,  -3.0355,   1
 10137,'HEY9        ',  20.0000,2,     0.000,     0.000,   1,   5,1.00000,  -3.0604,   1
 10138,'HENGYUND    ', 220.0000,1,     0.000,     0.000,   1,   6,1.03722,  -8.3999,   1
 10139,'KAIYUANB    ', 220.0000,1,     0.000,     0.000,   1,   6,1.03325,  -8.7267,   1
 10140,'HUAPU       ', 220.0000,1,     0.000,     0.000,   1,   6,1.02153,  -9.5867,   1
 10141,'DES1        ',  20.0000,2,     0.000,     0.000,   1,   5,0.98987,  -2.2615,   1
 10142,'DES2        ',  20.0000,2,     0.000,     0.000,   1,   5,0.98987,  -2.2615,   1
 10143,'DESHENG     ', 220.0000,1,     0.000,     0.000,   1,   6,1.03403,  -7.7609,   1
 10144,'XUSHENG     ', 220.0000,1,     0.000,     0.000,   1,   6,1.03128,  -8.0265,   1
 10145,'SHUNDE      ', 220.0000,1,     0.000,     0.000,   1,   1,1.02904,  -7.4262,   1
 10146,'SD2         ', 220.0000,1,     0.000,     0.000,   1,   1,0.99883,  -7.3691,   1
 10147,'SD3         ', 220.0000,1,     0.000,     0.000,   1,   1,0.99883,  -7.3690,   1
 10148,'SD32        ',  34.5000,1,     0.000,    50.000,   1,   1,1.01870,  -7.3851,   1
 10149,'SD33        ',  34.5000,1,     0.000,    50.000,   1,   1,1.01876,  -7.3850,   1
 10150,'HEM3        ',  19.0000,2,     0.000,     0.000,   1,   5,0.96791,  -4.9011,   1
 10151,'HENGMENB    ', 220.0000,1,     0.000,     0.000,   1,   6,1.01524, -10.2959,   1
 10152,'QILE        ', 220.0000,1,     0.000,     0.000,   1,   6,1.00365, -11.5101,   1
 10153,'XIANGSHB    ', 220.0000,1,     0.000,     0.000,   1,   1,1.01362,  -9.8115,   1
 10154,'XIANGSHA    ', 220.0000,1,     0.000,     0.000,   1,   1,1.02552,  -9.5592,   1
 10155,'XS1         ', 220.0000,1,     0.000,     0.000,   1,   1,0.98232,  -9.4635,   1
 10156,'XS2         ', 220.0000,1,     0.000,     0.000,   1,   1,0.97110,  -9.7147,   1
 10157,'XS3         ', 220.0000,1,     0.000,     0.000,   1,   1,0.97108,  -9.7171,   1
 10158,'XS31        ',  34.5000,1,     0.000,   100.000,   1,   1,1.02464,  -9.4964,   1
 10159,'XS32        ',  34.5000,1,     0.000,   100.000,   1,   1,1.01283,  -9.7475,   1
 10160,'XS33        ',  34.5000,1,     0.000,   100.000,   1,   1,1.01261,  -9.7499,   1
 10161,'ZUH1        ',  22.0000,2,     0.000,     0.000,   1,   5,0.98000,  -2.4205,   1
 10162,'ZUH2        ',  22.0000,2,     0.000,     0.000,   1,   5,0.98000,  -2.4205,   1
 10163,'ZHUCHANG    ', 220.0000,1,     0.000,     0.000,   1,   6,1.01688,  -9.6695,   1
 10164,'DOUMEN      ', 220.0000,1,     0.000,     0.000,   1,   6,0.99407, -12.2371,   1
 10165,'SANXIANG    ', 220.0000,1,     0.000,     0.000,   1,   6,0.98503, -13.4070,   1
 10166,'TOG1        ',  20.0000,2,     0.000,     0.000,   1,   5,1.00000,   8.2984,   1
 10167,'TOG2        ',  20.0000,2,     0.000,     0.000,   1,   5,1.00000,   8.2984,   1
 10168,'TONGGUCH    ', 220.0000,1,     0.000,     0.000,   1,   6,1.05985,   1.8480,   1
 10169,'NENGDA      ', 220.0000,1,     0.000,     0.000,   1,   6,1.02687,  -3.5816,   1
 10170,'XINHUI      ', 220.0000,1,     0.000,     0.000,   1,   6,1.01576,  -5.4023,   1
 10171,'JIANGMEN    ', 220.0000,1,     0.000,     0.000,   1,   1,1.01661,  -5.3213,   1
 10172,'JM1         ', 220.0000,1,     0.000,     0.000,   1,   1,1.02442,  -5.2904,   1
 10173,'JM2         ', 220.0000,1,     0.000,     0.000,   1,   1,1.02442,  -5.2904,   1
 10174,'JM31        ',  34.5000,1,     0.000,    80.000,   1,   1,1.07830,  -5.3328,   1
 10175,'JM32        ',  34.5000,1,     0.000,    80.000,   1,   1,1.07830,  -5.3328,   1
 10176,'SAG10       ',  20.0000,2,     0.000,     0.000,   1,   5,1.00571,   7.9240,   1
 10177,'SAG11       ',  20.0000,2,     0.000,     0.000,   1,   5,1.00571,   7.9240,   1
 10178,'SHAOB       ', 220.0000,1,     0.000,     0.000,   1,   6,1.07119,   2.7531,   1
 10179,'QUJIANG     ', 220.0000,1,     0.000,     0.000,   1,   1,1.06926,   2.5286,   1
 10180,'QJ1         ', 220.0000,1,     0.000,     0.000,   1,   1,0.99720,   2.5636,   1
 10181,'QJ2         ', 220.0000,1,     0.000,     0.000,   1,   1,0.99703,   2.5632,   1
 10182,'QJ31        ',  34.5000,1,     0.000,     0.000,   1,   1,0.99720,   2.5636,   1
 10183,'QJ32        ',  34.5000,1,     0.000,     0.000,   1,   1,0.99703,   2.5632,   1
 10184,'YUL1        ',  13.8000,2,     0.000,     0.000,   1,   5,0.99000,   9.8722,   1
 10185,'YUL2        ',  13.8000,2,     0.000,     0.000,   1,   5,0.99000,   9.8722,   1
 10186,'YUELIAN     ', 220.0000,1,     0.000,     0.000,   1,   6,1.07642,   4.2218,   1
 10187,'XIANLS      ', 220.0000,1,     0.000,     0.000,   1,   1,1.08167,   4.0236,   1
 10188,'XLS2        ', 220.0000,1,     0.000,     0.000,   1,   1,1.04610,   4.0574,   1
 10189,'XLS32       ',  34.5000,1,     0.000,   180.000,   1,   1,1.16773,   3.8766,   1
 10190,'LUOY3       ',  13.8000,2,     0.000,     0.000,   1,   5,1.00000,   4.7225,   1
 10191,'LUOCHANG    ', 220.0000,1,     0.000,     0.000,   1,   6,1.06352,  -0.2567,   1
 10192,'ANFENG      ', 220.0000,1,     0.000,     0.000,   1,   6,1.06796,   2.0347,   1
 10193,'MAM5        ',  15.8000,2,     0.000,     0.000,   1,   5,0.97000,  16.8550,   1
 10194,'MAM6        ',  20.0000,2,     0.000,     0.000,   1,   5,0.97000,  16.8232,   1
 10195,'MAOCHANG    ', 220.0000,1,     0.000,     0.000,   1,   6,1.03156,  10.5671,   1
 10196,'DIELING     ', 220.0000,1,     0.000,     0.000,   1,   1,1.03202,   2.2388,   1
 10197,'DL2         ', 220.0000,1,     0.000,     0.000,   1,   1,1.00075,   2.2624,   1
 10198,'DL32        ',  34.5000,1,     0.000,     0.000,   1,   1,1.00075,   2.2624,   1
 10199,'DL3         ', 220.0000,1,     0.000,     0.000,   1,   1,1.00075,   2.2624,   1
 10200,'DL33        ',  34.5000,1,     0.000,     0.000,   1,   1,1.00075,   2.2624,   1
...
0 / END OF BUS DATA, BEGIN LOAD DATA
 10001,'1 ',1,   1,   1, -1656.000,  -115.000,     0.000,     0.000,     0.000,     0.000,   1
 10002,'1 ',1,   1,   2, -2820.000,  -429.000,     0.000,     0.000,     0.000,     0.000,   2
 10004,'1 ',1,   1,   1, -2780.000,   117.800,     0.000,     0.000,     0.000,     0.000,   2
 10005,'1 ',1,   1,   1, -2800.000,  -251.000,     0.000,     0.000,     0.000,     0.000,   1
 10008,'1 ',1,   1,   2, -3607.000,   199.700,     0.000,     0.000,     0.000,     0.000,   2
 10009,'1 ',1,   1,   2, -2117.000,   302.000,     0.000,     0.000,     0.000,     0.000,   2
 10010,'1 ',1,   1,   2, -2077.000,  -172.000,     0.000,     0.000,     0.000,     0.000,   1
 10011,'1 ',1,   1,   1,     0.000,  -104.000,     0.000,     0.000,     0.000,     0.000,   1
 10012,'1 ',1,   1,   3,    29.050,    16.600,     0.000,     0.000,     0.000,     0.000,   1
 10013,'1 ',1,   1,   4,    35.000,    20.000,     0.000,     0.000,     0.000,     0.000,   1
 10014,'1 ',1,   1,   4,    35.000,    20.000,     0.000,     0.000,     0.000,     0.000,   1
 10015,'1 ',1,   1,   4,    15.000,     8.000,     0.000,     0.000,     0.000,     0.000,   1
 10016,'1 ',1,   1,   4,    15.000,     8.000,     0.000,     0.000,     0.000,     0.000,   1
 10017,'1 ',1,   1,   4,    15.000,     7.000,     0.000,     0.000,     0.000,     0.000,   1
 10018,'1 ',1,   1,   4,    15.000,     7.000,     0.000,     0.000,     0.000,     0.000,   1
 10019,'1 ',1,   1,   4,    28.000,    15.000,     0.000,     0.000,     0.000,     0.000,   1
 10020,'1 ',1,   1,   4,    28.000,    15.000,     0.000,     0.000,     0.000,     0.000,   1
 10021,'1 ',1,   1,   4,    28.000,    15.000,     0.000,     0.000,     0.000,     0.000,   1
 10022,'1 ',1,   1,   4,    12.000,     8.000,     0.000,     0.000,     0.000,     0.000,   1
 10023,'1 ',1,   1,   4,    12.000,     8.000,     0.000,     0.000,     0.000,     0.000,   1
 10024,'1 ',1,   1,   4,    12.000,     8.000,     0.000,     0.000,     0.000,     0.000,   1
 10025,'1 ',1,   1,   4,    12.000,     8.000,     0.000,     0.000,     0.000,     0.000,   1
 10026,'1 ',1,   1,   4,    12.000,     8.000,     0.000,     0.000,     0.000,     0.000,   1
 10027,'1 ',1,   1,   4,    12.000,     8.000,     0.000,     0.000,     0.000,     0.000,   1
 10028,'1 ',1,   1,   4,    12.000,     8.000,     0.000,     0.000,     0.000,     0.000,   1
 10029,'1 ',1,   1,   4,    12.000,     8.000,     0.000,     0.000,     0.000,     0.000,   1
 10030,'1 ',1,   1,   4,    30.000,    18.000,     0.000,     0.000,     0.000,     0.000,   1
 10031,'1 ',1,   1,   4,    30.000,    18.000,     0.000,     0.000,     0.000,     0.000,   1
 10032,'1 ',1,   1,   4,    30.000,    18.000,     0.000,     0.000,     0.000,     0.000,   1
 10033,'1 ',1,   1,   4,    30.000,    18.000,     0.000,     0.000,     0.000,     0.000,   1
 10034,'1 ',1,   1,   4,    30.000,    18.000,     0.000,     0.000,     0.000,     0.000,   1
 10035,'1 ',1,   1,   4,    15.000,     8.000,     0.000,     0.000,     0.000,     0.000,   1
 10036,'1 ',1,   1,   4,    15.000,     8.000,     0.000,     0.000,     0.000,     0.000,   1
 10037,'1 ',1,   1,   4,    30.000,    18.000,     0.000,     0.000,     0.000,     0.000,   1
 10038,'1 ',1,   1,   4,    30.000,    18.000,     0.000,     0.000,     0.000,     0.000,   1
 10039,'1 ',1,   1,   1,    36.000,    10.800,     0.000,     0.000,     0.000,     0.000,   1
 10040,'1 ',1,   1,   4,    30.000,    18.000,     0.000,     0.000,     0.000,     0.000,   1
 10041,'1 ',1,   1,   4,    30.000,    18.000,     0.000,     0.000,     0.000,     0.000,   1
 10042,'1 ',1,   1,   1,    60.000,    30.000,     0.000,     0.000,     0.000,     0.000,   1
 10043,'1 ',1,   1,   4,    15.000,     8.000,     0.000,     0.000,     0.000,     0.000,   1
 10044,'1 ',1,   1,   4,    15.000,     8.000,     0.000,     0.000,     0.000,     0.000,   1
 10048,'1 ',1,   1,   1,   281.700,    42.200,     0.000,     0.000,     0.000,     0.000,   1
 10064,'1 ',1,   1,   1,   846.600,     1.200,     0.000,     0.000,     0.000,     0.000,   1
 10067,'1 ',1,   1,   1,  2511.000,   130.600,     0.000,     0.000,     0.000,     0.000,   1
 10068,'1 ',1,   1,   1,  1050.000,   -19.200,     0.000,     0.000,     0.000,     0.000,   1
 10072,'1 ',1,   1,   1,  1856.000,   -65.700,     0.000,     0.000,     0.000,     0.000,   1
 10073,'1 ',1,   1,   1,  1974.000,   523.200,     0.000,     0.000,     0.000,     0.000,   1
 10074,'1 ',1,   1,   1,  2699.000,   158.000,     0.000,     0.000,     0.000,     0.000,   1
 10078,'1 ',1,   1,   1,   327.800,    76.000,     0.000,     0.000,     0.000,     0.000,   1
 10080,'1 ',1,   1,   1,   177.000,   117.100,     0.000,     0.000,     0.000,     0.000,   1
 10084,'1 ',1,   1,   1,   288.000,    40.800,     0.000,     0.000,     0.000,     0.000,   1
 10087,'1 ',1,   1,   1,   571.400,    24.100,     0.000,     0.000,     0.000,     0.000,   1
 10088,'1 ',1,   1,   1,  2301.000,   267.500,     0.000,     0.000,     0.000,     0.000,   1
 10093,'1 ',1,   1,   5,    10.000,     6.000,     0.000,     0.000,     0.000,     0.000,   1
 10094,'1 ',1,   1,   5,    10.000,     6.000,     0.000,     0.000,     0.000,     0.000,   1
 10095,'1 ',1,   1,   6,   266.600,   128.200,     0.000,     0.000,     0.000,     0.000,   1
 10096,'1 ',1,   1,   6,   119.700,    30.800,     0.000,     0.000,     0.000,     0.000,   1
 10097,'1 ',1,   1,   6,   247.900,    47.000,     0.000,     0.000,     0.000,     0.000,   1
 10098,'1 ',1,   1,   1,   714.400,   133.200,     0.000,     0.000,     0.000,     0.000,   1
 10105,'1 ',1,   1,   5,    15.000,     8.000,     0.000,     0.000,     0.000,     0.000,   1
 10106,'1 ',1,   1,   5,    15.000,     8.000,     0.000,     0.000,     0.000,     0.000,   1
 10107,'1 ',1,   1,   6,   100.600,   124.800,     0.000,     0.000,     0.000,     0.000,   1
 10108,'1 ',1,   1,   6,   468.300,   104.600,     0.000,     0.000,     0.000,     0.000,   1
 10109,'1 ',1,   1,   6,   440.700,    28.000,     0.000,     0.000,     0.000,     0.000,   1
 10111,'1 ',1,   1,   1,  1138.000,   239.500,     0.000,     0.000,     0.000,     0.000,   1
 10118,'1 ',1,   1,   5,    15.000,     8.000,     0.000,     0.000,     0.000,     0.000,   1
 10119,'1 ',1,   1,   5,    15.000,     8.000,     0.000,     0.000,     0.000,     0.000,   1
 10120,'1 ',1,   1,   5,    15.000,     8.000,     0.000,     0.000,     0.000,     0.000,   1
 10121,'1 ',1,   1,   5,    15.000,     8.000,     0.000,     0.000,     0.000,     0.000,   1
 10122,'1 ',1,   1,   6,   791.800,   216.000,     0.000,     0.000,     0.000,     0.000,   1
 10123,'1 ',1,   1,   1,   705.200,   187.800,     0.000,     0.000,     0.000,     0.000,   1
 10126,'1 ',1,   1,   1,  1245.000,   -55.200,     0.000,     0.000,     0.000,     0.000,   1
 10131,'1 ',1,   1,   5,    10.000,     6.000,     0.000,     0.000,     0.000,     0.000,   1
 10132,'1 ',1,   1,   5,    10.000,     6.000,     0.000,     0.000,     0.000,     0.000,   1
 10134,'1 ',1,   1,   6,   171.300,    15.700,     0.000,     0.000,     0.000,     0.000,   1
 10135,'1 ',1,   1,   6,   530.700,   158.300,     0.000,     0.000,     0.000,     0.000,   1
 10136,'1 ',1,   1,   5,    15.000,     8.000,     0.000,     0.000,     0.000,     0.000,   1
 10137,'1 ',1,   1,   5,    15.000,     8.000,     0.000,     0.000,     0.000,     0.000,   1
 10139,'1 ',1,   1,   6,    92.500,    18.300,     0.000,     0.000,     0.000,     0.000,   1
 10140,'1 ',1,   1,   6,   463.000,   142.500,     0.000,     0.000,     0.000,     0.000,   1
 10141,'1 ',1,   1,   5,    15.000,     8.000,     0.000,     0.000,     0.000,     0.000,   1
 10142,'1 ',1,   1,   5,    15.000,     8.000,     0.000,     0.000,     0.000,     0.000,   1
 10144,'1 ',1,   1,   6,   685.600,   146.800,     0.000,     0.000,     0.000,     0.000,   1
 10145,'1 ',1,   1,   1,   742.100,    91.300,     0.000,     0.000,     0.000,     0.000,   1
 10150,'1 ',1,   1,   5,    10.000,     6.000,     0.000,     0.000,     0.000,     0.000,   1
 10152,'1 ',1,   1,   6,   259.500,    84.600,     0.000,     0.000,     0.000,     0.000,   1
 10153,'1 ',1,   1,   1,  1187.000,   257.800,     0.000,     0.000,     0.000,     0.000,   1
 10154,'1 ',1,   1,   1,   776.500,   108.900,     0.000,     0.000,     0.000,     0.000,   1
 10161,'1 ',1,   1,   5,    35.000,    20.000,     0.000,     0.000,     0.000,     0.000,   1
 10162,'1 ',1,   1,   5,    35.000,    20.000,     0.000,     0.000,     0.000,     0.000,   1
 10163,'1 ',1,   1,   6,   707.800,    75.000,     0.000,     0.000,     0.000,     0.000,   1
 10164,'1 ',1,   1,   6,   324.900,   117.300,     0.000,     0.000,     0.000,     0.000,   1
 10165,'1 ',1,   1,   6,   598.200,   163.600,     0.000,     0.000,     0.000,     0.000,   1
 10166,'1 ',1,   1,   5,    30.000,    18.000,     0.000,     0.000,     0.000,     0.000,   1
 10167,'1 ',1,   1,   5,    30.000,    18.000,     0.000,     0.000,     0.000,     0.000,   1
 10168,'1 ',1,   1,   6,   836.800,   230.400,     0.000,     0.000,     0.000,     0.000,   1
 10169,'1 ',1,   1,   6,    74.100,    11.800,     0.000,     0.000,     0.000,     0.000,   1
 10170,'1 ',1,   1,   6,   162.200,    39.100,     0.000,     0.000,     0.000,     0.000,   1
 10171,'1 ',1,   1,   1,   749.700,   359.800,     0.000,     0.000,     0.000,     0.000,   1
 10176,'1 ',1,   1,   5,    15.000,     8.000,     0.000,     0.000,     0.000,     0.000,   1
 10177,'1 ',1,   1,   5,    15.000,     8.000,     0.000,     0.000,     0.000,     0.000,   1
 10179,'1 ',1,   1,   1,  1006.000,   159.900,     0.000,     0.000,     0.000,     0.000,   1
 10184,'1 ',1,   1,   5,     9.000,     5.000,     0.000,     0.000,     0.000,     0.000,   1
 10185,'1 ',1,   1,   5,     9.000,     5.000,     0.000,     0.000,     0.000,     0.000,   1
 10187,'1 ',1,   1,   1,   313.000,   -11.600,     0.000,     0.000,     0.000,     0.000,   1
 10190,'1 ',1,   1,   5,     8.400,     3.000,     0.000,     0.000,     0.000,     0.000,   1
 10191,'1 ',1,   1,   6,   297.800,   -11.800,     0.000,     0.000,     0.000,     0.000,   1
 10192,'1 ',1,   1,   6,    23.100,     5.800,     0.000,     0.000,     0.000,     0.000,   1
 10193,'1 ',1,   1,   5,    12.000,     7.000,     0.000,     0.000,     0.000,     0.000,   1
 10194,'1 ',1,   1,   5,    15.000,     8.000,     0.000,     0.000,     0.000,     0.000,   1
 10195,'1 ',1,   1,   6,   266.100,    91.700,     0.000,     0.000,     0.000,     0.000,   1
 10196,'1 ',1,   1,   1,   579.900,    22.400,     0.000,     0.000,     0.000,     0.000,   1
 10201,'1 ',1,   1,   5,    15.000,     8.000,     0.000,     0.000,     0.000,     0.000,   1
 10202,'1 ',1,   1,   5,    15.000,     8.000,     0.000,     0.000,     0.000,     0.000,   1
 10203,'1 ',1,   1,   5,    15.000,     8.000,     0.000,     0.000,     0.000,     0.000,   1
 10204,'1 ',1,   1,   5,    15.000,     8.000,     0.000,     0.000,     0.000,     0.000,   1
 10205,'1 ',1,   1,   6,   623.300,    65.600,     0.000,     0.000,     0.000,     0.000,   1
 10206,'1 ',1,   1,   6,   150.100,    13.500,     0.000,     0.000,     0.000,     0.000,   1
 10207,'1 ',1,   1,   6,    63.900,    11.300,     0.000,     0.000,     0.000,     0.000,   1
 10208,'1 ',1,   1,   1,   196.200,    54.600,     0.000,     0.000,     0.000,     0.000,   1
 10211,'1 ',1,   1,   5,     8.000,     4.000,     0.000,     0.000,     0.000,     0.000,   1
 10212,'1 ',1,   1,   5,     8.000,     4.000,     0.000,     0.000,     0.000,     0.000,   1
 10213,'1 ',1,   1,   6,   106.700,     7.900,     0.000,     0.000,     0.000,     0.000,   1
 10214,'1 ',1,   1,   6,    27.750,    11.100,     0.000,     0.000,     0.000,     0.000,   1
 10215,'1 ',1,   1,   6,    27.750,    11.100,     0.000,     0.000,     0.000,     0.000,   1
 10216,'1 ',1,   1,   6,    27.750,    11.100,     0.000,     0.000,     0.000,     0.000,   1
 10217,'1 ',1,   1,   6,    27.750,    11.100,     0.000,     0.000,     0.000,     0.000,   1
 10218,'1 ',1,   1,   6,   148.300,    47.200,     0.000,     0.000,     0.000,     0.000,   1
 10219,'1 ',1,   1,   1,  1001.000,    40.000,     0.000,     0.000,     0.000,     0.000,   1
 10224,'1 ',1,   1,   5,    15.000,     8.000,     0.000,     0.000,     0.000,     0.000,   1
 10225,'1 ',1,   1,   5,    15.000,     8.000,     0.000,     0.000,     0.000,     0.000,   1
 10226,'1 ',1,   1,   5,    30.000,    18.000,     0.000,     0.000,     0.000,     0.000,   1
 10227,'1 ',1,   1,   6,   407.000,   138.600,     0.000,     0.000,     0.000,     0.000,   1
 10228,'1 ',1,   1,   6,   350.400,   123.400,     0.000,     0.000,     0.000,     0.000,   1
 10229,'1 ',1,   1,   6,   185.400,    61.600,     0.000,     0.000,     0.000,     0.000,   1
 10230,'1 ',1,   1,   1,   221.100,    27.600,     0.000,     0.000,     0.000,     0.000,   1
 10237,'1 ',1,   1,   5,    30.000,    18.000,     0.000,     0.000,     0.000,     0.000,   1
 10238,'1 ',1,   1,   5,    30.000,    18.000,     0.000,     0.000,     0.000,     0.000,   1
 10239,'1 ',1,   1,   6,   443.800,   119.400,     0.000,     0.000,     0.000,     0.000,   1
 10240,'1 ',1,   1,   6,   337.800,    89.400,     0.000,     0.000,     0.000,     0.000,   1
 10241,'1 ',1,   1,   6,   231.300,    53.000,     0.000,     0.000,     0.000,     0.000,   1
 10242,'1 ',1,   1,   6,   146.200,    44.500,     0.000,     0.000,     0.000,     0.000,   1
 10243,'1 ',1,   1,   5,    30.000,    18.000,     0.000,     0.000,     0.000,     0.000,   1
 10244,'1 ',1,   1,   5,    30.000,    18.000,     0.000,     0.000,     0.000,     0.000,   1
 10245,'1 ',1,   1,   6,   438.400,   114.800,     0.000,     0.000,     0.000,     0.000,   1
 10246,'1 ',1,   1,   6,   395.200,    94.100,     0.000,     0.000,     0.000,     0.000,   1
 10247,'1 ',1,   1,   6,   148.400,    57.500,     0.000,     0.000,     0.000,     0.000,   1
 10248,'1 ',1,   1,   5,     9.000,     6.000,     0.000,     0.000,     0.000,     0.000,   1
 10249,'1 ',1,   1,   5,     9.000,     6.000,     0.000,     0.000,     0.000,     0.000,   1
 10250,'1 ',1,   1,   5,     8.400,     5.000,     0.000,     0.000,     0.000,     0.000,   1
 10251,'1 ',1,   1,   5,     8.400,     5.000,     0.000,     0.000,     0.000,     0.000,   1
 10252,'1 ',1,   1,   6,   230.500,    17.200,     0.000,     0.000,     0.000,     0.000,   1
 10253,'1 ',1,   1,   6,    18.500,     0.000,     0.000,     0.000,     0.000,     0.000,   1
 10255,'1 ',1,   1,   6,   192.300,   -11.600,     0.000,     0.000,     0.000,     0.000,   1
 10256,'1 ',1,   1,   1,  -309.000,   -82.500,     0.000,     0.000,     0.000,     0.000,   1
 10259,'1 ',1,   1,   5,    30.000,    18.000,     0.000,     0.000,     0.000,     0.000,   1
 10261,'1 ',1,   1,   6,    55.600,     4.800,     0.000,     0.000,     0.000,     0.000,   1
 10262,'1 ',1,   1,   6,    82.600,    22.500,     0.000,     0.000,     0.000,     0.000,   1
 10263,'1 ',1,   1,   1,   705.200,    93.000,     0.000,     0.000,     0.000,     0.000,   1
 10273,'1 ',1,   1,   6,   205.100,    56.900,     0.000,     0.000,     0.000,     0.000,   1
 10274,'1 ',1,   1,   3,    29.050,    16.600,     0.000,     0.000,     0.000,     0.000,   1
 10277,'1 ',1,   1,   1,  1187.000,    94.000,     0.000,     0.000,     0.000,     0.000,   1
 10278,'1 ',1,   1,   1,  -664.000,   142.800,     0.000,     0.000,     0.000,     0.000,   1
 10340,'1 ',1,   1,   5,    15.000,     8.000,     0.000,     0.000,     0.000,     0.000,   1
 10341,'1 ',1,   1,   5,    15.000,     8.000,     0.000,     0.000,     0.000,     0.000,   1
 10342,'1 ',1,   1,   5,    15.000,     8.000,     0.000,     0.000,     0.000,     0.000,   1
 10343,'1 ',1,   1,   5,    15.000,     8.000,     0.000,     0.000,     0.000,     0.000,   1
 10344,'1 ',1,   1,   5,    15.000,     8.000,     0.000,     0.000,     0.000,     0.000,   1
 10345,'1 ',1,   1,   5,    15.000,     8.000,     0.000,     0.000,     0.000,     0.000,   1
 10346,'1 ',1,   1,   5,    10.000,     6.000,     0.000,     0.000,     0.000,     0.000,   1
 10347,'1 ',1,   1,   5,    10.000,     6.000,     0.000,     0.000,     0.000,     0.000,   1
 10348,'1 ',1,   1,   5,     6.000,     3.000,     0.000,     0.000,     0.000,     0.000,   1
 10349,'1 ',1,   1,   5,     2.000,     1.000,     0.000,     0.000,     0.000,     0.000,   1
 10350,'1 ',1,   1,   5,    10.000,     6.000,     0.000,     0.000,     0.000,     0.000,   1
 10351,'1 ',1,   1,   5,    10.000,     6.000,     0.000,     0.000,     0.000,     0.000,   1
 10352,'1 ',1,   1,   5,    10.000,     6.000,     0.000,     0.000,     0.000,     0.000,   1
 10358,'1 ',1,   1,   8,   240.000,    70.000,     0.000,     0.000,     0.000,     0.000,   1
 10363,'1 ',1,   1,   9,   106.000,    27.000,     0.000,     0.000,     0.000,     0.000,   1
 10366,'1 ',1,   1,   9,   118.000,    33.400,     0.000,     0.000,     0.000,     0.000,   1
 10367,'1 ',1,   1,   9,   132.000,    36.340,     0.000,     0.000,     0.000,     0.000,   1
 10368,'1 ',1,   1,   9,   114.000,    33.000,     0.000,     0.000,     0.000,     0.000,   1
 10369,'1 ',1,   1,   9,    75.000,    17.000,     0.000,     0.000,     0.000,     0.000,   1
 10370,'1 ',1,   1,   9,   100.000,    23.000,     0.000,     0.000,     0.000,     0.000,   1
 10374,'1 ',1,   1,  10,   101.000,    16.700,     0.000,     0.000,     0.000,     0.000,   1
 10378,'1 ',1,   1,  10,    34.000,     0.000,     0.000,     0.000,     0.000,     0.000,   1
 10379,'1 ',1,   1,  10,   135.000,    22.090,     0.000,     0.000,     0.000,     0.000,   1
 10380,'1 ',1,   1,  10,     7.000,     1.000,     0.000,     0.000,     0.000,     0.000,   1
 10381,'1 ',1,   1,  10,   113.000,    32.800,     0.000,     0.000,     0.000,     0.000,   1
 10382,'1 ',1,   1,  10,    21.000,     2.200,     0.000,     0.000,     0.000,     0.000,   1
 10383,'1 ',1,   1,  10,   124.000,    30.310,     0.000,     0.000,     0.000,     0.000,   1
 10384,'1 ',1,   1,  10,    71.000,    20.000,     0.000,     0.000,     0.000,     0.000,   1
 10387,'1 ',1,   1,  11,    83.000,    18.000,     0.000,     0.000,     0.000,     0.000,   1
 10389,'1 ',1,   1,  11,    41.000,     6.400,     0.000,     0.000,     0.000,     0.000,   1
 10390,'1 ',1,   1,  11,    66.000,    13.540,     0.000,     0.000,     0.000,     0.000,   1
 10391,'1 ',1,   1,  11,   115.000,    23.670,     0.000,     0.000,     0.000,     0.000,   1
 10392,'1 ',1,   1,  11,    93.000,    20.500,     0.000,     0.000,     0.000,     0.000,   1
 10393,'1 ',1,   1,  11,     4.000,     0.600,     0.000,     0.000,     0.000,     0.000,   1
 10394,'1 ',1,   1,  11,   120.000,    36.100,     0.000,     0.000,     0.000,     0.000,   1
 10395,'1 ',1,   1,  11,     5.000,     1.000,     0.000,     0.000,     0.000,     0.000,   1
 10398,'1 ',1,   1,  12,   132.000,    40.000,     0.000,     0.000,     0.000,     0.000,   1
...
0 / END OF LOAD DATA, BEGIN GENERATOR DATA
 10012,'1 ',   980.000,   187.311,   435.000,     0.000,1.01500,     0,   100.000,   0.00000,   1.00000,   0.00000,   0.00000,1.00000,1,  100.0,   990.000,     0.000,   1,1.0000
 10013,'1 ',   980.000,   141.635,   479.000,     0.000,1.01500,     0,   100.000,   0.00000,   1.00000,   0.00000,   0.00000,1.00000,1,  100.0,   990.000,     0.000,   1,1.0000
 10014,'1 ',   980.000,   141.635,   479.000,     0.000,1.01500,     0,   100.000,   0.00000,   1.00000,   0.00000,   0.00000,1.00000,1,  100.0,   990.000,     0.000,   1,1.0000
 10015,'1 ',   300.000,    58.517,   145.000,     0.000,1.01500,     0,   100.000,   0.00000,   1.00000,   0.00000,   0.00000,1.00000,1,  100.0,   300.000,     0.000,   1,1.0000
 10016,'1 ',   300.000,    58.517,   145.000,     0.000,1.01500,     0,   100.000,   0.00000,   1.00000,   0.00000,   0.00000,1.00000,1,  100.0,   300.000,     0.000,   1,1.0000
 10017,'1 ',   129.148,    80.580,   170.000,     0.000,1.01500,     0,   100.000,   0.00000,   1.00000,   0.00000,   0.00000,1.00000,1,  100.0,   350.000,     0.000,   1,1.0000
 10018,'1 ',   300.000,    90.077,   170.000,     0.000,1.01500,     0,   100.000,   0.00000,   1.00000,   0.00000,   0.00000,1.00000,1,  100.0,   350.000,     0.000,   1,1.0000
 10019,'1 ',   600.000,    58.270,   320.000,     0.000,1.00500,     0,   100.000,   0.00000,   1.00000,   0.00000,   0.00000,1.00000,1,  100.0,   660.000,     0.000,   1,1.0000
 10020,'1 ',   600.000,    40.827,   320.000,     0.000,1.00500,     0,   100.000,   0.00000,   1.00000,   0.00000,   0.00000,1.00000,1,  100.0,   660.000,     0.000,   1,1.0000
 10021,'1 ',   600.000,    58.270,   320.000,     0.000,1.00500,     0,   100.000,   0.00000,   1.00000,   0.00000,   0.00000,1.00000,1,  100.0,   660.000,     0.000,   1,1.0000
 10022,'1 ',   300.000,    52.049,   145.000,     0.000,1.02500,     0,   100.000,   0.00000,   1.00000,   0.00000,   0.00000,1.00000,1,  100.0,   300.000,     0.000,   1,1.0000
 10023,'1 ',   300.000,    52.049,   145.000,     0.000,1.02500,     0,   100.000,   0.00000,   1.00000,   0.00000,   0.00000,1.00000,1,  100.0,   300.000,     0.000,   1,1.0000
 10024,'1 ',   300.000,    52.049,   145.000,     0.000,1.02500,     0,   100.000,   0.00000,   1.00000,   0.00000,   0.00000,1.00000,1,  100.0,   300.000,     0.000,   1,1.0000
 10025,'1 ',   300.000,    84.358,   145.000,     0.000,1.03800,     0,   100.000,   0.00000,   1.00000,   0.00000,   0.00000,1.00000,1,  100.0,   300.000,     0.000,   1,1.0000
 10026,'1 ',   300.000,    52.227,   145.000,     0.000,1.02500,     0,   100.000,   0.00000,   1.00000,   0.00000,   0.00000,1.00000,1,  100.0,   300.000,     0.000,   1,1.0000
 10027,'1 ',   300.000,    52.227,   145.000,     0.000,1.02500,     0,   100.000,   0.00000,   1.00000,   0.00000,   0.00000,1.00000,1,  100.0,   300.000,     0.000,   1,1.0000
 10028,'1 ',   300.000,    52.227,   145.000,     0.000,1.02500,     0,   100.000,   0.00000,   1.00000,   0.00000,   0.00000,1.00000,1,  100.0,   300.000,     0.000,   1,1.0000
 10029,'1 ',   200.000,    55.217,   145.000,     0.000,1.03500,     0,   100.000,   0.00000,   1.00000,   0.00000,   0.00000,1.00000,1,  100.0,   300.000,     0.000,   1,1.0000
 10030,'1 ',   550.000,    60.000,   216.000,    60.000,1.00000,     0,   100.000,   0.00000,   1.00000,   0.00000,   0.00000,1.00000,1,  100.0,   600.000,     0.000,   1,1.0000
 10031,'1 ',   550.000,    60.000,   216.000,    60.000,1.00000,     0,   100.000,   0.00000,   1.00000,   0.00000,   0.00000,1.00000,1,  100.0,   600.000,     0.000,   1,1.0000
 10032,'1 ',   555.000,    56.339,   290.000,   -90.000,1.00000,     0,   100.000,   0.00000,   1.00000,   0.00000,   0.00000,1.00000,1,  100.0,   600.000,     0.000,   1,1.0000
 10033,'1 ',   555.000,    56.339,   290.000,   -90.000,1.00000,     0,   100.000,   0.00000,   1.00000,   0.00000,   0.00000,1.00000,1,  100.0,   600.000,     0.000,   1,1.0000
 10034,'1 ',   555.000,    56.339,   290.000,   -90.000,1.00000,     0,   100.000,   0.00000,   1.00000,   0.00000,   0.00000,1.00000,1,  100.0,   600.000,     0.000,   1,1.0000
 10035,'1 ',   250.000,   100.000,   100.000,     0.000,1.02000,     0,   100.000,   0.00000,   1.00000,   0.00000,   0.00000,1.00000,1,  100.0,   300.000,     0.000,   1,1.0000
 10036,'1 ',   250.000,   100.000,   100.000,     0.000,1.02000,     0,   100.000,   0.00000,   1.00000,   0.00000,   0.00000,1.00000,1,  100.0,   300.000,     0.000,   1,1.0000
 10037,'1 ',   600.000,    55.431,   150.000,     0.000,1.02000,     0,   100.000,   0.00000,   1.00000,   0.00000,   0.00000,1.00000,1,  100.0,   650.000,     0.000,   1,1.0000
 10038,'1 ',   600.000,    60.000,   150.000,    60.000,1.02000,     0,   100.000,   0.00000,   1.00000,   0.00000,   0.00000,1.00000,1,  100.0,   650.000,     0.000,   1,1.0000
 10039,'1 ',   500.000,    27.153,   260.000,     0.000,1.00800,     0,   100.000,   0.00000,   1.00000,   0.00000,   0.00000,1.00000,1,  100.0,   600.000,     0.000,   1,1.0000
 10040,'1 ',   520.000,     0.000,   200.000,     0.000,1.00000,     0,   100.000,   0.00000,   1.00000,   0.00000,   0.00000,1.00000,1,  100.0,   600.000,     0.000,   1,1.0000
 10041,'1 ',   520.000,     0.000,   200.000,     0.000,1.00000,     0,   100.000,   0.00000,   1.00000,   0.00000,   0.00000,1.00000,1,  100.0,   600.000,     0.000,   1,1.0000
 10042,'1 ',   850.000,    91.889,   452.000,     0.000,1.02000,     0,   100.000,   0.00000,   1.00000,   0.00000,   0.00000,1.00000,1,  100.0,  1000.000,     0.000,   1,1.0000
 10043,'1 ',   280.000,     0.000,   100.000,     0.000,1.00000,     0,   100.000,   0.00000,   1.00000,   0.00000,   0.00000,1.00000,1,  100.0,   300.000,     0.000,   1,1.0000
 10044,'1 ',   280.000,     0.000,   100.000,     0.000,1.00000,     0,   100.000,   0.00000,   1.00000,   0.00000,   0.00000,1.00000,1,  100.0,   300.000,     0.000,   1,1.0000
 10093,'1 ',   300.000,   155.708,   230.000,   -70.000,1.01000,     0,   100.000,   0.00000,   1.00000,   0.00000,   0.00000,1.00000,1,  100.0,   370.000,     0.000,   1,1.0000
 10094,'1 ',   300.000,   155.708,   230.000,   -70.000,1.01000,     0,   100.000,   0.00000,   1.00000,   0.00000,   0.00000,1.00000,1,  100.0,   370.000,     0.000,   1,1.0000
 10105,'1 ',   250.000,   171.464,   180.000,     0.000,1.01500,     0,   100.000,   0.00000,   1.00000,   0.00000,   0.00000,1.00000,1,  100.0,   300.000,     0.000,   1,1.0000
 10106,'1 ',   250.000,   171.464,   180.000,     0.000,1.01500,     0,   100.000,   0.00000,   1.00000,   0.00000,   0.00000,1.00000,1,  100.0,   300.000,     0.000,   1,1.0000
 10118,'1 ',   295.000,   130.763,   145.000,     0.000,1.01000,     0,   100.000,   0.00000,   1.00000,   0.00000,   0.00000,1.00000,1,  100.0,   300.000,     0.000,   1,1.0000
 10119,'1 ',   295.000,   130.763,   145.000,     0.000,1.01000,     0,   100.000,   0.00000,   1.00000,   0.00000,   0.00000,1.00000,1,  100.0,   300.000,     0.000,   1,1.0000
 10120,'1 ',   295.000,   137.243,   145.000,     0.000,1.01000,     0,   100.000,   0.00000,   1.00000,   0.00000,   0.00000,1.00000,1,  100.0,   300.000,     0.000,   1,1.0000
 10121,'1 ',   295.000,   137.243,   145.000,     0.000,1.01000,     0,   100.000,   0.00000,   1.00000,   0.00000,   0.00000,1.00000,1,  100.0,   300.000,     0.000,   1,1.0000
 10131,'1 ',   365.000,   160.682,   165.000,     0.000,1.00000,     0,   100.000,   0.00000,   1.00000,   0.00000,   0.00000,1.00000,1,  100.0,   370.000,     0.000,   1,1.0000
 10132,'1 ',   365.000,   160.682,   165.000,     0.000,1.00000,     0,   100.000,   0.00000,   1.00000,   0.00000,   0.00000,1.00000,1,  100.0,   370.000,     0.000,   1,1.0000
 10136,'1 ',   250.000,   145.000,   145.000,   -75.000,1.00000,     0,   100.000,   0.00000,   1.00000,   0.00000,   0.00000,1.00000,1,  100.0,   300.000,     0.000,   1,1.0000
 10137,'1 ',   250.000,   155.927,   169.000,   -75.000,1.00000,     0,   100.000,   0.00000,   1.00000,   0.00000,   0.00000,1.00000,1,  100.0,   300.000,     0.000,   1,1.0000
 10141,'1 ',   250.000,   145.000,   145.000,     0.000,1.01000,     0,   100.000,   0.00000,   1.00000,   0.00000,   0.00000,1.00000,1,  100.0,   300.000,     0.000,   1,1.0000
 10142,'1 ',   250.000,   145.000,   145.000,     0.000,1.00000,     0,   100.000,   0.00000,   1.00000,   0.00000,   0.00000,1.00000,1,  100.0,   300.000,     0.000,   1,1.0000
 10150,'1 ',   300.000,   165.000,   165.000,     0.000,1.01300,     0,   100.000,   0.00000,   1.00000,   0.00000,   0.00000,1.00000,1,  100.0,   370.000,     0.000,   1,1.0000
 10161,'1 ',   650.000,   223.823,   340.000,     0.000,0.98000,     0,   100.000,   0.00000,   1.00000,   0.00000,   0.00000,1.00000,1,  100.0,   700.000,     0.000,   1,1.0000
 10162,'1 ',   650.000,   223.823,   340.000,     0.000,0.98000,     0,   100.000,   0.00000,   1.00000,   0.00000,   0.00000,1.00000,1,  100.0,   700.000,     0.000,   1,1.0000
 10166,'1 ',   550.000,   216.346,   290.000,    60.000,1.00000,     0,   100.000,   0.00000,   1.00000,   0.00000,   0.00000,1.00000,1,  100.0,   600.000,     0.000,   1,1.0000
 10167,'1 ',   550.000,   216.346,   290.000,    60.000,1.00000,     0,   100.000,   0.00000,   1.00000,   0.00000,   0.00000,1.00000,1,  100.0,   600.000,     0.000,   1,1.0000
 10176,'1 ',   250.000,   100.000,   100.000,     0.000,1.02000,     0,   100.000,   0.00000,   1.00000,   0.00000,   0.00000,1.00000,1,  100.0,   300.000,     0.000,   1,1.0000
 10177,'1 ',   250.000,   100.000,   100.000,     0.000,1.02000,     0,   100.000,   0.00000,   1.00000,   0.00000,   0.00000,1.00000,1,  100.0,   300.000,     0.000,   1,1.0000
 10184,'1 ',   120.000,    -6.840,    60.000,   -25.000,0.99000,     0,   100.000,   0.00000,   1.00000,   0.00000,   0.00000,1.00000,1,  100.0,   125.000,     0.000,   1,1.0000
 10185,'1 ',   120.000,    -6.840,    60.000,   -25.000,0.99000,     0,   100.000,   0.00000,   1.00000,   0.00000,   0.00000,1.00000,1,  100.0,   125.000,     0.000,   1,1.0000
 10190,'1 ',   120.000,    16.631,    65.000,     0.000,1.00000,     0,   100.000,   0.00000,   1.00000,   0.00000,   0.00000,1.00000,1,  100.0,   135.000,     0.000,   1,1.0000
 10193,'1 ',   190.000,    28.140,    97.000,    20.000,0.97000,     0,   100.000,   0.00000,   1.00000,   0.00000,   0.00000,1.00000,1,  100.0,   200.000,     0.000,   1,1.0000
 10194,'1 ',   290.000,    41.470,   145.000,     0.000,0.97000,     0,   100.000,   0.00000,   1.00000,   0.00000,   0.00000,1.00000,1,  100.0,   300.000,     0.000,   1,1.0000
 10201,'1 ',   250.000,    54.921,   145.000,     0.000,0.98000,     0,   100.000,   0.00000,   1.00000,   0.00000,   0.00000,1.00000,1,  100.0,   300.000,     0.000,   1,1.0000
 10202,'1 ',   250.000,    54.921,   145.000,     0.000,0.98000,     0,   100.000,   0.00000,   1.00000,   0.00000,   0.00000,1.00000,1,  100.0,   300.000,     0.000,   1,1.0000
 10203,'1 ',   250.000,    54.921,   145.000,     0.000,0.98000,     0,   100.000,   0.00000,   1.00000,   0.00000,   0.00000,1.00000,1,  100.0,   300.000,     0.000,   1,1.0000
 10204,'1 ',   250.000,    54.921,   145.000,     0.000,0.98000,     0,   100.000,   0.00000,   1.00000,   0.00000,   0.00000,1.00000,1,  100.0,   300.000,     0.000,   1,1.0000
 10211,'1 ',   120.000,    60.000,    60.000,    10.000,1.00000,     0,   100.000,   0.00000,   1.00000,   0.00000,   0.00000,1.00000,1,  100.0,   125.000,     0.000,   1,1.0000
 10212,'1 ',   120.000,    60.000,    60.000,    10.000,1.00000,     0,   100.000,   0.00000,   1.00000,   0.00000,   0.00000,1.00000,1,  100.0,   125.000,     0.000,   1,1.0000
 10224,'1 ',   280.000,   151.048,   155.000,   -80.000,1.00000,     0,   100.000,   0.00000,   1.00000,   0.00000,   0.00000,1.00000,1,  100.0,   300.000,     0.000,   1,1.0000
 10225,'1 ',   280.000,   151.048,   155.000,   -80.000,1.00000,     0,   100.000,   0.00000,   1.00000,   0.00000,   0.00000,1.00000,1,  100.0,   300.000,     0.000,   1,1.0000
 10226,'1 ',   520.000,   226.476,   280.000,   -50.000,1.00000,     0,   100.000,   0.00000,   1.00000,   0.00000,   0.00000,1.00000,1,  100.0,   600.000,     0.000,   1,1.0000
 10237,'1 ',   520.000,   205.265,   260.000,     0.000,1.00000,     0,   100.000,   0.00000,   1.00000,   0.00000,   0.00000,1.00000,1,  100.0,   600.000,     0.000,   1,1.0000
 10238,'1 ',   520.000,   205.265,   260.000,     0.000,1.00000,     0,   100.000,   0.00000,   1.00000,   0.00000,   0.00000,1.00000,1,  100.0,   600.000,     0.000,   1,1.0000
 10243,'1 ',   520.000,   208.093,   260.000,     0.000,1.00000,     0,   100.000,   0.00000,   1.00000,   0.00000,   0.00000,1.00000,1,  100.0,   600.000,     0.000,   1,1.0000
 10244,'1 ',   520.000,   208.093,   260.000,     0.000,1.00000,     0,   100.000,   0.00000,   1.00000,   0.00000,   0.00000,1.00000,1,  100.0,   600.000,     0.000,   1,1.0000
 10248,'1 ',   100.000,    22.185,    60.000,   -30.000,0.99500,     0,   100.000,   0.00000,   1.00000,   0.00000,   0.00000,1.00000,1,  100.0,   125.000,     0.000,   1,1.0000
 10249,'1 ',   100.000,    23.049,    60.000,   -30.000,0.99500,     0,   100.000,   0.00000,   1.00000,   0.00000,   0.00000,1.00000,1,  100.0,   125.000,     0.000,   1,1.0000
 10250,'1 ',   100.000,    19.508,    65.000,   -25.000,0.99500,     0,   100.000,   0.00000,   1.00000,   0.00000,   0.00000,1.00000,1,  100.0,   135.000,     0.000,   1,1.0000
 10251,'1 ',   100.000,    19.508,    65.000,   -25.000,0.99500,     0,   100.000,   0.00000,   1.00000,   0.00000,   0.00000,1.00000,1,  100.0,   135.000,     0.000,   1,1.0000
 10259,'1 ',   360.000,    60.000,    60.000,     0.000,1.01000,     0,   100.000,   0.00000,   1.00000,   0.00000,   0.00000,1.00000,1,  100.0,   600.000,     0.000,   1,1.0000
 10268,'1 ',    80.000,     9.011,    56.000,     0.000,1.00000,     0,   100.000,   0.00000,   1.00000,   0.00000,   0.00000,1.00000,1,  100.0,   100.000,     0.000,   1,1.0000
 10269,'1 ',    50.000,     5.299,    34.000,     0.000,1.00000,     0,   100.000,   0.00000,   1.00000,   0.00000,   0.00000,1.00000,1,  100.0,    72.500,     0.000,   1,1.0000
 10270,'1 ',    50.000,     6.390,    53.000,   -30.000,1.00000,     0,   100.000,   0.00000,   1.00000,   0.00000,   0.00000,1.00000,1,  100.0,    85.000,     0.000,   1,1.0000
 10274,'1 ',   980.000,    84.820,   435.000,     0.000,1.01500,     0,   100.000,   0.00000,   1.00000,   0.00000,   0.00000,1.00000,1,  100.0,   990.000,     0.000,   1,1.0000
 10340,'1 ',   290.000,   145.000,   145.000,   -60.000,1.01500,     0,   100.000,   0.00000,   1.00000,   0.00000,   0.00000,1.00000,1,  100.0,   300.000,     0.000,   1,1.0000
 10341,'1 ',   290.000,   145.000,   145.000,   -60.000,1.01500,     0,   100.000,   0.00000,   1.00000,   0.00000,   0.00000,1.00000,1,  100.0,   300.000,     0.000,   1,1.0000
 10342,'1 ',   290.000,   148.602,   185.000,     0.000,1.01500,     0,   100.000,   0.00000,   1.00000,   0.00000,   0.00000,1.00000,1,  100.0,   300.000,     0.000,   1,1.0000
 10343,'1 ',   290.000,   148.602,   185.000,   -60.000,1.01500,     0,   100.000,   0.00000,   1.00000,   0.00000,   0.00000,1.00000,1,  100.0,   300.000,     0.000,   1,1.0000
 10344,'1 ',   290.000,   148.602,   160.000,     0.000,1.01500,     0,   100.000,   0.00000,   1.00000,   0.00000,   0.00000,1.00000,1,  100.0,   300.000,     0.000,   1,1.0000
 10345,'1 ',   290.000,   148.602,   154.000,   -60.000,1.01500,     0,   100.000,   0.00000,   1.00000,   0.00000,   0.00000,1.00000,1,  100.0,   300.000,     0.000,   1,1.0000
 10346,'1 ',   360.000,   165.000,   165.000,     0.000,1.00000,     0,   100.000,   0.00000,   1.00000,   0.00000,   0.00000,1.00000,1,  100.0,   370.000,     0.000,   1,1.0000
 10347,'1 ',   320.000,   165.000,   165.000,     0.000,1.00000,     0,   100.000,   0.00000,   1.00000,   0.00000,   0.00000,1.00000,1,  100.0,   370.000,     0.000,   1,1.0000
 10348,'1 ',   110.000,    66.776,    70.000,     0.000,1.00000,     0,   100.000,   0.00000,   1.00000,   0.00000,   0.00000,1.00000,1,  100.0,   120.000,     0.000,   1,1.0000
 10349,'1 ',    50.000,    35.000,    35.000,     0.000,1.00000,     0,   100.000,   0.00000,   1.00000,   0.00000,   0.00000,1.00000,1,  100.0,    60.000,     0.000,   1,1.0000
 10350,'1 ',   220.000,   100.000,   100.000,     0.000,1.00000,     0,   100.000,   0.00000,   1.00000,   0.00000,   0.00000,1.00000,1,  100.0,   370.000,     0.000,   1,1.0000
 10351,'1 ',   220.000,   100.000,   100.000,     0.000,1.00000,     0,   100.000,   0.00000,   1.00000,   0.00000,   0.00000,1.00000,1,  100.0,   370.000,     0.000,   1,1.0000
 10352,'1 ',   240.000,   134.275,   165.000,     0.000,1.00500,     0,   100.000,   0.00000,   1.00000,   0.00000,   0.00000,1.00000,1,  100.0,   370.000,     0.000,   1,1.0000
 10630,'1 ',   200.000,    17.659,    97.000,     0.000,1.05900,     0,   100.000,   0.00000,   1.00000,   0.00000,   0.00000,1.00000,1,  100.0,   200.000,     0.000,   1,1.0000
 10631,'1 ',   300.000,    58.462,   146.000,     0.000,1.05900,     0,   100.000,   0.00000,   1.00000,   0.00000,   0.00000,1.00000,1,  100.0,   300.000,     0.000,   1,1.0000
 10632,'1 ',   100.000,    28.636,    49.000,     0.000,1.03900,     0,   100.000,   0.00000,   1.00000,   0.00000,   0.00000,1.00000,1,  100.0,   100.000,     0.000,   1,1.0000
 10633,'1 ',   150.000,    81.000,    81.000,     0.000,1.01400,     0,   100.000,   0.00000,   1.00000,   0.00000,   0.00000,1.00000,1,  100.0,   150.000,     0.000,   1,1.0000
 10634,'1 ',   150.000,    39.542,    81.000,     0.000,1.05800,     0,   100.000,   0.00000,   1.00000,   0.00000,   0.00000,1.00000,1,  100.0,   150.000,     0.000,   1,1.0000
 10635,'1 ',   150.000,    21.673,    73.000,     0.000,1.04000,     0,   100.000,   0.00000,   1.00000,   0.00000,   0.00000,1.00000,1,  100.0,   150.000,     0.000,   1,1.0000
 10636,'1 ',     0.000,     0.000,     0.000,     0.000,1.05100,     0,   100.000,   0.00000,   1.00000,   0.00000,   0.00000,1.00000,1,  100.0,     0.000,     0.000,   1,1.0000
 10637,'1 ',   200.000,    31.329,    86.000,     0.000,1.05500,     0,   100.000,   0.00000,   1.00000,   0.00000,   0.00000,1.00000,1,  100.0,   200.000,     0.000,   1,1.0000
 10638,'1 ',   150.000,    44.270,    81.000,     0.000,1.04500,     0,   100.000,   0.00000,   1.00000,   0.00000,   0.00000,1.00000,1,  100.0,   150.000,     0.000,   1,1.0000
 10639,'1 ',   150.000,    59.339,    81.000,     0.000,1.04900,     0,   100.000,   0.00000,   1.00000,   0.00000,   0.00000,1.00000,1,  100.0,   150.000,     0.000,   1,1.0000
 10640,'1 ',   200.000,    46.226,    97.000,     0.000,1.04000,     0,   100.000,   0.00000,   1.00000,   0.00000,   0.00000,1.00000,1,  100.0,   200.000,     0.000,   1,1.0000
 10641,'1 ',   250.000,     4.147,   122.000,     0.000,1.05900,     0,   100.000,   0.00000,   1.00000,   0.00000,   0.00000,1.00000,1,  100.0,   250.000,     0.000,   1,1.0000
0 / END OF GENERATOR DATA, BEGIN BRANCH DATA
 10003,  10070,'1 ',   0.00000,   0.00020,   0.01050, 5000.00, 5000.00, 5000.00,  0.00000,  0.00000,  0.00000,  0.00000,1,   1.00,   1,1.0000
 10003,  10070,'2 ',   0.00000,   0.00020,   0.01050, 5000.00, 5000.00, 5000.00,  0.00000,  0.00000,  0.00000,  0.00000,1,   1.00,   1,1.0000
 10006,  10076,'1 ',   0.00010,   0.00030,   0.03150, 5000.00, 5000.00, 5000.00,  0.00000,  0.00000,  0.00000,  0.00000,1,   3.00,   1,1.0000
 10006,  10076,'2 ',   0.00010,   0.00040,   0.03150, 5000.00, 5000.00, 5000.00,  0.00000,  0.00000,  0.00000,  0.00000,1,   3.00,   1,1.0000
 10045, -10075,'1 ',   0.00060,   0.00640,   0.56250, 2100.00, 2100.00, 2100.00,  0.00000,  0.00000,  0.00000,  0.00000,1,  55.00,   1,1.0000
 10046,  10279,'1 ',   0.00040,   0.00480,   0.43290, 2500.00, 2500.00, 2500.00,  0.00000,  0.00000,  0.00000,  0.00000,1,  41.00,   1,1.0000
 10046,  10279,'2 ',   0.00060,   0.00460,   0.43820, 2500.00, 2500.00, 2500.00,  0.00000,  0.00000,  0.00000,  0.00000,1,  42.00,   1,1.0000
 10046,  10298,'1 ',   0.00040,   0.00420,   0.37730, 2500.00, 2500.00, 2500.00,  0.00000,  0.00000,  0.00000,  0.00000,1,  36.00,   1,1.0000
 10046,  10298,'2 ',   0.00040,   0.00410,   0.37730, 2500.00, 2500.00, 2500.00,  0.00000,  0.00000,  0.00000,  0.00000,1,  36.00,   1,1.0000
 10047,  10048,'1 ',   0.00000,   0.00020,   0.01050, 2000.00, 2000.00, 2000.00,  0.00000,  0.00000,  0.00000,  0.00000,1,   0.00,   1,1.0000
 10047,  10063,'1 ',   0.00060,   0.00640,   0.53250, 2500.00, 2500.00, 2500.00,  0.00000,  0.00000,  0.00000,  0.00000,1,  57.00,   1,1.0000
 10047,  10287,'1 ',   0.00040,   0.00440,   0.37200, 2500.00, 2500.00, 2500.00,  0.00000,  0.00000,  0.00000,  0.00000,1,  36.00,   1,1.0000
 10047,  10287,'2 ',   0.00110,   0.00700,   0.65430, 2500.00, 2500.00, 2500.00,  0.00000,  0.00000,  0.00000,  0.00000,1,  63.00,   1,1.0000
 10048,  10063,'1 ',   0.00100,   0.00650,   0.58280, 2530.00, 2530.00, 2530.00,  0.00000,  0.00000,  0.00000,  0.00000,1,  57.00,   1,1.0000
 10049,  10050,'1 ',   0.00000,   0.00020,   0.01030, 1420.00, 1420.00, 1420.00,  0.00000,  0.00000,  0.00000,  0.00000,1,   1.00,   1,1.0000
 10049,  10087,'1 ',   0.00080,   0.01160,   1.04570, 1420.00, 1420.00, 1420.00,  0.00000,  0.00000,  0.00000,  0.00000,1,  10.20,   1,1.0000
 10050,  10062,'1 ',   0.00110,   0.00880,   0.85200, 2100.00, 2100.00, 2100.00,  0.00000,  0.00000,  0.00000,  0.00000,1,  83.00,   1,1.0000
 10050,  10062,'2 ',   0.00130,   0.00940,   0.82700, 2100.00, 2100.00, 2100.00,  0.00000,  0.00000,  0.00000,  0.00000,1,  80.00,   1,1.0000
 10051,  10072,'1 ',   0.00030,   0.00650,   0.66360, 2850.00, 2850.00, 2850.00,  0.00000,  0.00000,  0.00000,  0.00000,1,  61.70,   1,1.0000
 10051,  10072,'2 ',   0.00030,   0.00650,   0.66360, 2850.00, 2850.00, 2850.00,  0.00000,  0.00000,  0.00000,  0.00000,1,  61.70,   1,1.0000
 10051,  10076,'1 ',   0.00020,   0.00180,   0.17040, 2500.00, 2500.00, 2500.00,  0.00000,  0.00000,  0.00000,  0.00000,1,  16.00,   1,1.0000
 10052,  10086,'1 ',   0.00050,   0.00840,   0.85780, 3340.00, 3340.00, 3340.00,  0.00000,  0.00000,  0.00000,  0.00000,1,  82.00,   1,1.0000
 10052,  10086,'2 ',   0.00050,   0.00840,   0.85780, 3340.00, 3340.00, 3340.00,  0.00000,  0.00000,  0.00000,  0.00000,1,  82.00,   1,1.0000
 10053,  10086,'1 ',   0.00070,   0.01070,   1.08680, 3140.00, 3140.00, 3140.00,  0.00000,  0.00000,  0.00000,  0.00000,1,  10.40,   1,1.0000
 10053,  10086,'2 ',   0.00060,   0.01070,   1.08680, 3140.00, 3140.00, 3140.00,  0.00000,  0.00000,  0.00000,  0.00000,1,  10.40,   1,1.0000
 10054,  10055,'1 ',   0.00010,   0.00020,   0.01740, 2100.00, 2100.00, 2100.00,  0.00000,  0.00000,  0.00000,  0.00000,1,   1.70,   1,1.0000
 10055,  10081,'1 ',   0.00210,   0.02160,   1.89630, 2100.00, 2100.00, 2100.00,  0.00000,  0.00000,  0.00000,  0.00000,1,  18.50,   1,1.0000
 10055,  10081,'2 ',   0.00190,   0.02100,   1.89630, 2100.00, 2100.00, 2100.00,  0.00000,  0.00000,  0.00000,  0.00000,1,  18.50,   1,1.0000
...